Circuit: * Z:\home\anagix\work\YSS_PMOS\diff_amp\calc_gm.asc

Error on line 4 : v2 0 n001 v
	 Unknown parameter "v"
Warning: Pd = 0 is less than W.
Warning: Ps = 0 is less than W.
Warning: A2 = 0 is too small. Setting to 0.01.
Warning: nsub is ignored because k1 or k2 is given.
Warning: xt is ignored because k1 or k2 is given.
V2: Missing value, assumed 0V @ DC

Date: Fri Aug 21 14:49:57 2020
Total elapsed time: 0.083 seconds.

tnom = 27
temp = 27
method = trap
totiter = 205
traniter = 0
tranpoints = 0
accept = 0
rejected = 0
matrix size = 4
fillins = 0
solver = Normal
Matrix Compiler1: 118 bytes object code size  0.1/0.1/[0.1]
Matrix Compiler2: 216 bytes object code size  0.1/0.1/[0.1]

