Circuit: * Z:\home\anagix\work\YSS_PMOS\diff_amp\currentsource_test14um.asc

Warning: Pd = 0 is less than W.
Warning: Ps = 0 is less than W.
Warning: A2 = 0 is too small. Setting to 0.01.
Warning: nsub is ignored because k1 or k2 is given.
Warning: xt is ignored because k1 or k2 is given.

Date: Fri Aug 21 15:39:00 2020
Total elapsed time: 0.083 seconds.

tnom = 27
temp = 27
method = trap
totiter = 2007
traniter = 0
tranpoints = 0
accept = 0
rejected = 0
matrix size = 7
fillins = 0
solver = Normal
Matrix Compiler1: 196 bytes object code size  0.1/0.1/[0.0]
Matrix Compiler2: 401 bytes object code size  0.1/0.1/[0.1]

