Circuit: * Z:\home\anagix\work\YSS_PMOS\diff_amp\diffamp_test10umrealCS.asc

Warning: Pd = 0 is less than W.
Warning: Ps = 0 is less than W.
Warning: A2 = 0 is too small. Setting to 0.01.
Warning: nsub is ignored because k1 or k2 is given.
Warning: xt is ignored because k1 or k2 is given.
Warning: Pd = 0 is less than W.
Warning: Ps = 0 is less than W.
Warning: A2 = 0 is too small. Setting to 0.01.
Warning: nsub is ignored because k1 or k2 is given.
Warning: xt is ignored because k1 or k2 is given.

Date: Wed Aug 26 19:04:30 2020
Total elapsed time: 0.081 seconds.

tnom = 27
temp = 27
method = trap
totiter = 2019
traniter = 0
tranpoints = 0
accept = 0
rejected = 0
matrix size = 13
fillins = 3
solver = Normal
Matrix Compiler1: 1.05 KB object code size  0.3/0.1/[0.1]
Matrix Compiler2: 1.34 KB object code size  0.2/0.2/[0.1]

