Circuit: * Z:\home\anagix\work\YSS_PMOS\diff_amp\diffamp_test10um.asc

Warning: Pd = 0 is less than W.
Warning: Ps = 0 is less than W.
Warning: A2 = 0 is too small. Setting to 0.01.
Warning: nsub is ignored because k1 or k2 is given.
Warning: xt is ignored because k1 or k2 is given.

Date: Wed Aug 26 18:37:35 2020
Total elapsed time: 0.063 seconds.

tnom = 27
temp = 27
method = trap
totiter = 2006
traniter = 0
tranpoints = 0
accept = 0
rejected = 0
matrix size = 10
fillins = 3
solver = Normal
Matrix Compiler1: 710 bytes object code size  0.3/0.2/[0.2]
Matrix Compiler2: 982 bytes object code size  0.3/0.3/[0.2]

