Circuit: * Z:\home\anagix\work\YSS_PMOS\diff_amp\diffamp_test10umrealCS-Vcm-gain.asc

Warning: Pd = 0 is less than W.
Warning: Ps = 0 is less than W.
Warning: A2 = 0 is too small. Setting to 0.01.
Warning: nsub is ignored because k1 or k2 is given.
Warning: xt is ignored because k1 or k2 is given.
Warning: Pd = 0 is less than W.
Warning: Ps = 0 is less than W.
Warning: A2 = 0 is too small. Setting to 0.01.
Warning: nsub is ignored because k1 or k2 is given.
Warning: xt is ignored because k1 or k2 is given.

Date: Wed Aug 26 19:14:14 2020
Total elapsed time: 0.075 seconds.

tnom = 27
temp = 27
method = trap
totiter = 2020
traniter = 0
tranpoints = 0
accept = 0
rejected = 0
matrix size = 15
fillins = 3
solver = Normal
Matrix Compiler1: 1.11 KB object code size  0.2/0.1/[0.1]
Matrix Compiler2: 1.50 KB object code size  0.2/0.2/[0.1]

